* NGSPICE file created from alu8bit.ext - technology: sky130A

* Black-box entry subcircuit for sky130_fd_sc_hd__a31o_1 abstract view
.subckt sky130_fd_sc_hd__a31o_1 A1 A2 A3 B1 VGND VNB VPB VPWR X
.ends

* Black-box entry subcircuit for sky130_fd_sc_hd__decap_6 abstract view
.subckt sky130_fd_sc_hd__decap_6 VGND VNB VPB VPWR
.ends

* Black-box entry subcircuit for sky130_ef_sc_hd__decap_12 abstract view
.subckt sky130_ef_sc_hd__decap_12 VPWR VGND VPB VNB
.ends

* Black-box entry subcircuit for sky130_fd_sc_hd__or3_1 abstract view
.subckt sky130_fd_sc_hd__or3_1 A B C VGND VNB VPB VPWR X
.ends

* Black-box entry subcircuit for sky130_fd_sc_hd__and4bb_1 abstract view
.subckt sky130_fd_sc_hd__and4bb_1 A_N B_N C D VGND VNB VPB VPWR X
.ends

* Black-box entry subcircuit for sky130_fd_sc_hd__fill_2 abstract view
.subckt sky130_fd_sc_hd__fill_2 VGND VNB VPB VPWR
.ends

* Black-box entry subcircuit for sky130_fd_sc_hd__decap_4 abstract view
.subckt sky130_fd_sc_hd__decap_4 VGND VNB VPB VPWR
.ends

* Black-box entry subcircuit for sky130_fd_sc_hd__decap_8 abstract view
.subckt sky130_fd_sc_hd__decap_8 VGND VNB VPB VPWR
.ends

* Black-box entry subcircuit for sky130_fd_sc_hd__tapvpwrvgnd_1 abstract view
.subckt sky130_fd_sc_hd__tapvpwrvgnd_1 VGND VPWR
.ends

* Black-box entry subcircuit for sky130_fd_sc_hd__a21oi_1 abstract view
.subckt sky130_fd_sc_hd__a21oi_1 A1 A2 B1 VGND VNB VPB VPWR Y
.ends

* Black-box entry subcircuit for sky130_fd_sc_hd__or2b_1 abstract view
.subckt sky130_fd_sc_hd__or2b_1 A B_N VGND VNB VPB VPWR X
.ends

* Black-box entry subcircuit for sky130_fd_sc_hd__fill_1 abstract view
.subckt sky130_fd_sc_hd__fill_1 VGND VNB VPB VPWR
.ends

* Black-box entry subcircuit for sky130_fd_sc_hd__o22a_1 abstract view
.subckt sky130_fd_sc_hd__o22a_1 A1 A2 B1 B2 VGND VNB VPB VPWR X
.ends

* Black-box entry subcircuit for sky130_fd_sc_hd__clkbuf_4 abstract view
.subckt sky130_fd_sc_hd__clkbuf_4 A VGND VNB VPB VPWR X
.ends

* Black-box entry subcircuit for sky130_fd_sc_hd__nand2_1 abstract view
.subckt sky130_fd_sc_hd__nand2_1 A B VGND VNB VPB VPWR Y
.ends

* Black-box entry subcircuit for sky130_fd_sc_hd__o21ai_1 abstract view
.subckt sky130_fd_sc_hd__o21ai_1 A1 A2 B1 VGND VNB VPB VPWR Y
.ends

* Black-box entry subcircuit for sky130_fd_sc_hd__a22o_1 abstract view
.subckt sky130_fd_sc_hd__a22o_1 A1 A2 B1 B2 VGND VNB VPB VPWR X
.ends

* Black-box entry subcircuit for sky130_fd_sc_hd__decap_3 abstract view
.subckt sky130_fd_sc_hd__decap_3 VGND VNB VPB VPWR
.ends

* Black-box entry subcircuit for sky130_fd_sc_hd__o211a_1 abstract view
.subckt sky130_fd_sc_hd__o211a_1 A1 A2 B1 C1 VGND VNB VPB VPWR X
.ends

* Black-box entry subcircuit for sky130_fd_sc_hd__o21a_1 abstract view
.subckt sky130_fd_sc_hd__o21a_1 A1 A2 B1 VGND VNB VPB VPWR X
.ends

* Black-box entry subcircuit for sky130_fd_sc_hd__inv_2 abstract view
.subckt sky130_fd_sc_hd__inv_2 A VGND VNB VPB VPWR Y
.ends

* Black-box entry subcircuit for sky130_fd_sc_hd__a2bb2o_1 abstract view
.subckt sky130_fd_sc_hd__a2bb2o_1 A1_N A2_N B1 B2 VGND VNB VPB VPWR X
.ends

* Black-box entry subcircuit for sky130_fd_sc_hd__o221a_1 abstract view
.subckt sky130_fd_sc_hd__o221a_1 A1 A2 B1 B2 C1 VGND VNB VPB VPWR X
.ends

* Black-box entry subcircuit for sky130_fd_sc_hd__and3_1 abstract view
.subckt sky130_fd_sc_hd__and3_1 A B C VGND VNB VPB VPWR X
.ends

* Black-box entry subcircuit for sky130_fd_sc_hd__xnor2_1 abstract view
.subckt sky130_fd_sc_hd__xnor2_1 A B VGND VNB VPB VPWR Y
.ends

* Black-box entry subcircuit for sky130_fd_sc_hd__a31oi_1 abstract view
.subckt sky130_fd_sc_hd__a31oi_1 A1 A2 A3 B1 VGND VNB VPB VPWR Y
.ends

* Black-box entry subcircuit for sky130_fd_sc_hd__and2b_1 abstract view
.subckt sky130_fd_sc_hd__and2b_1 A_N B VGND VNB VPB VPWR X
.ends

* Black-box entry subcircuit for sky130_fd_sc_hd__or2_1 abstract view
.subckt sky130_fd_sc_hd__or2_1 A B VGND VNB VPB VPWR X
.ends

* Black-box entry subcircuit for sky130_fd_sc_hd__nor4_4 abstract view
.subckt sky130_fd_sc_hd__nor4_4 A B C D VGND VNB VPB VPWR Y
.ends

* Black-box entry subcircuit for sky130_fd_sc_hd__a21o_1 abstract view
.subckt sky130_fd_sc_hd__a21o_1 A1 A2 B1 VGND VNB VPB VPWR X
.ends

* Black-box entry subcircuit for sky130_fd_sc_hd__nor2_1 abstract view
.subckt sky130_fd_sc_hd__nor2_1 A B VGND VNB VPB VPWR Y
.ends

* Black-box entry subcircuit for sky130_fd_sc_hd__xor2_2 abstract view
.subckt sky130_fd_sc_hd__xor2_2 A B VGND VNB VPB VPWR X
.ends

* Black-box entry subcircuit for sky130_fd_sc_hd__or4_4 abstract view
.subckt sky130_fd_sc_hd__or4_4 A B C D VGND VNB VPB VPWR X
.ends

* Black-box entry subcircuit for sky130_fd_sc_hd__or2_4 abstract view
.subckt sky130_fd_sc_hd__or2_4 A B VGND VNB VPB VPWR X
.ends

* Black-box entry subcircuit for sky130_fd_sc_hd__a211o_1 abstract view
.subckt sky130_fd_sc_hd__a211o_1 A1 A2 B1 C1 VGND VNB VPB VPWR X
.ends

* Black-box entry subcircuit for sky130_fd_sc_hd__buf_4 abstract view
.subckt sky130_fd_sc_hd__buf_4 A VGND VNB VPB VPWR X
.ends

* Black-box entry subcircuit for sky130_fd_sc_hd__nand3_1 abstract view
.subckt sky130_fd_sc_hd__nand3_1 A B C VGND VNB VPB VPWR Y
.ends

* Black-box entry subcircuit for sky130_fd_sc_hd__and2_1 abstract view
.subckt sky130_fd_sc_hd__and2_1 A B VGND VNB VPB VPWR X
.ends

* Black-box entry subcircuit for sky130_fd_sc_hd__or4_1 abstract view
.subckt sky130_fd_sc_hd__or4_1 A B C D VGND VNB VPB VPWR X
.ends

* Black-box entry subcircuit for sky130_fd_sc_hd__a221o_1 abstract view
.subckt sky130_fd_sc_hd__a221o_1 A1 A2 B1 B2 C1 VGND VNB VPB VPWR X
.ends

* Black-box entry subcircuit for sky130_fd_sc_hd__buf_2 abstract view
.subckt sky130_fd_sc_hd__buf_2 A VGND VNB VPB VPWR X
.ends

* Black-box entry subcircuit for sky130_fd_sc_hd__and3b_1 abstract view
.subckt sky130_fd_sc_hd__and3b_1 A_N B C VGND VNB VPB VPWR X
.ends

* Black-box entry subcircuit for sky130_fd_sc_hd__or4b_1 abstract view
.subckt sky130_fd_sc_hd__or4b_1 A B C D_N VGND VNB VPB VPWR X
.ends

* Black-box entry subcircuit for sky130_fd_sc_hd__or3b_1 abstract view
.subckt sky130_fd_sc_hd__or3b_1 A B C_N VGND VNB VPB VPWR X
.ends

* Black-box entry subcircuit for sky130_fd_sc_hd__or4bb_4 abstract view
.subckt sky130_fd_sc_hd__or4bb_4 A B C_N D_N VGND VNB VPB VPWR X
.ends

* Black-box entry subcircuit for sky130_fd_sc_hd__and4b_2 abstract view
.subckt sky130_fd_sc_hd__and4b_2 A_N B C D VGND VNB VPB VPWR X
.ends

* Black-box entry subcircuit for sky130_fd_sc_hd__buf_1 abstract view
.subckt sky130_fd_sc_hd__buf_1 A VGND VNB VPB VPWR X
.ends

* Black-box entry subcircuit for sky130_fd_sc_hd__and4bb_4 abstract view
.subckt sky130_fd_sc_hd__and4bb_4 A_N B_N C D VGND VNB VPB VPWR X
.ends

* Black-box entry subcircuit for sky130_fd_sc_hd__a32o_1 abstract view
.subckt sky130_fd_sc_hd__a32o_1 A1 A2 A3 B1 B2 VGND VNB VPB VPWR X
.ends

* Black-box entry subcircuit for sky130_fd_sc_hd__buf_6 abstract view
.subckt sky130_fd_sc_hd__buf_6 A VGND VNB VPB VPWR X
.ends

* Black-box entry subcircuit for sky130_fd_sc_hd__clkbuf_2 abstract view
.subckt sky130_fd_sc_hd__clkbuf_2 A VGND VNB VPB VPWR X
.ends

* Black-box entry subcircuit for sky130_fd_sc_hd__a21bo_1 abstract view
.subckt sky130_fd_sc_hd__a21bo_1 A1 A2 B1_N VGND VNB VPB VPWR X
.ends

* Black-box entry subcircuit for sky130_fd_sc_hd__nor2_4 abstract view
.subckt sky130_fd_sc_hd__nor2_4 A B VGND VNB VPB VPWR Y
.ends

* Black-box entry subcircuit for sky130_fd_sc_hd__nand3b_2 abstract view
.subckt sky130_fd_sc_hd__nand3b_2 A_N B C VGND VNB VPB VPWR Y
.ends

* Black-box entry subcircuit for sky130_fd_sc_hd__xnor2_2 abstract view
.subckt sky130_fd_sc_hd__xnor2_2 A B VGND VNB VPB VPWR Y
.ends

* Black-box entry subcircuit for sky130_fd_sc_hd__xnor2_4 abstract view
.subckt sky130_fd_sc_hd__xnor2_4 A B VGND VNB VPB VPWR Y
.ends

* Black-box entry subcircuit for sky130_fd_sc_hd__or4_2 abstract view
.subckt sky130_fd_sc_hd__or4_2 A B C D VGND VNB VPB VPWR X
.ends

* Black-box entry subcircuit for sky130_fd_sc_hd__a311o_1 abstract view
.subckt sky130_fd_sc_hd__a311o_1 A1 A2 A3 B1 C1 VGND VNB VPB VPWR X
.ends

* Black-box entry subcircuit for sky130_fd_sc_hd__a2111oi_1 abstract view
.subckt sky130_fd_sc_hd__a2111oi_1 A1 A2 B1 C1 D1 VGND VNB VPB VPWR Y
.ends

* Black-box entry subcircuit for sky130_fd_sc_hd__nor4_1 abstract view
.subckt sky130_fd_sc_hd__nor4_1 A B C D VGND VNB VPB VPWR Y
.ends

* Black-box entry subcircuit for sky130_fd_sc_hd__and3_2 abstract view
.subckt sky130_fd_sc_hd__and3_2 A B C VGND VNB VPB VPWR X
.ends

* Black-box entry subcircuit for sky130_fd_sc_hd__xor2_1 abstract view
.subckt sky130_fd_sc_hd__xor2_1 A B VGND VNB VPB VPWR X
.ends

* Black-box entry subcircuit for sky130_fd_sc_hd__or4b_2 abstract view
.subckt sky130_fd_sc_hd__or4b_2 A B C D_N VGND VNB VPB VPWR X
.ends

* Black-box entry subcircuit for sky130_fd_sc_hd__nand4_1 abstract view
.subckt sky130_fd_sc_hd__nand4_1 A B C D VGND VNB VPB VPWR Y
.ends

* Black-box entry subcircuit for sky130_fd_sc_hd__or3_4 abstract view
.subckt sky130_fd_sc_hd__or3_4 A B C VGND VNB VPB VPWR X
.ends

* Black-box entry subcircuit for sky130_fd_sc_hd__a2bb2o_4 abstract view
.subckt sky130_fd_sc_hd__a2bb2o_4 A1_N A2_N B1 B2 VGND VNB VPB VPWR X
.ends

.subckt alu8bit VGND VPWR a[0] a[1] a[2] a[3] a[4] a[5] a[6] a[7] b[0] b[1] b[2] b[3]
+ b[4] b[5] b[6] b[7] carry opcode[0] opcode[1] opcode[2] opcode[3] result[0] result[1]
+ result[2] result[3] result[4] result[5] result[6] result[7] zero
X_294_ _067_ _104_ _060_ _009_ VGND VGND VPWR VPWR _069_ sky130_fd_sc_hd__a31o_1
XFILLER_0_13_62 VGND VGND VPWR VPWR sky130_fd_sc_hd__decap_6
XFILLER_0_18_29 VPWR VGND VPWR VGND sky130_ef_sc_hd__decap_12
XFILLER_0_24_72 VPWR VGND VPWR VGND sky130_ef_sc_hd__decap_12
X_277_ _120_ net13 _098_ VGND VGND VPWR VPWR _053_ sky130_fd_sc_hd__or3_1
X_200_ _083_ _086_ _087_ _082_ VGND VGND VPWR VPWR _132_ sky130_fd_sc_hd__and4bb_1
XFILLER_0_0_29 VGND VGND VPWR VPWR sky130_fd_sc_hd__fill_2
XFILLER_0_9_38 VPWR VGND VPWR VGND sky130_ef_sc_hd__decap_12
XFILLER_0_10_41 VPWR VGND VPWR VGND sky130_ef_sc_hd__decap_12
XFILLER_0_10_85 VGND VGND VPWR VPWR sky130_fd_sc_hd__decap_4
XFILLER_0_10_96 VPWR VGND VPWR VGND sky130_ef_sc_hd__decap_12
XFILLER_0_21_84 VPWR VGND VPWR VGND sky130_ef_sc_hd__decap_12
XFILLER_0_22_109 VPWR VGND VPWR VGND sky130_ef_sc_hd__decap_12
XFILLER_0_16_95 VGND VGND VPWR VPWR sky130_fd_sc_hd__decap_8
XTAP_112 VGND VPWR sky130_fd_sc_hd__tapvpwrvgnd_1
XTAP_101 VGND VPWR sky130_fd_sc_hd__tapvpwrvgnd_1
X_293_ _104_ _060_ _067_ VGND VGND VPWR VPWR _068_ sky130_fd_sc_hd__a21oi_1
XFILLER_0_1_120 VPWR VGND VPWR VGND sky130_ef_sc_hd__decap_12
X_276_ net14 net6 VGND VGND VPWR VPWR _052_ sky130_fd_sc_hd__or2b_1
XFILLER_0_4_72 VGND VGND VPWR VPWR sky130_fd_sc_hd__fill_1
X_259_ net5 _094_ _147_ _025_ VGND VGND VPWR VPWR _037_ sky130_fd_sc_hd__o22a_1
XFILLER_0_10_53 VGND VGND VPWR VPWR sky130_fd_sc_hd__decap_4
XFILLER_0_21_96 VPWR VGND VPWR VGND sky130_ef_sc_hd__decap_12
XFILLER_0_1_84 VGND VGND VPWR VPWR sky130_fd_sc_hd__fill_1
XFILLER_0_16_85 VGND VGND VPWR VPWR sky130_fd_sc_hd__fill_2
Xoutput21 net21 VGND VGND VPWR VPWR carry sky130_fd_sc_hd__clkbuf_4
XTAP_113 VGND VPWR sky130_fd_sc_hd__tapvpwrvgnd_1
XTAP_102 VGND VPWR sky130_fd_sc_hd__tapvpwrvgnd_1
X_292_ _101_ _102_ VGND VGND VPWR VPWR _067_ sky130_fd_sc_hd__nand2_1
XFILLER_0_1_132 VPWR VGND VPWR VGND sky130_ef_sc_hd__decap_12
X_275_ _040_ _041_ _051_ VGND VGND VPWR VPWR net27 sky130_fd_sc_hd__o21ai_1
XFILLER_0_24_85 VGND VGND VPWR VPWR sky130_fd_sc_hd__fill_2
XFILLER_0_24_41 VPWR VGND VPWR VGND sky130_ef_sc_hd__decap_12
XFILLER_0_19_41 VGND VGND VPWR VPWR sky130_fd_sc_hd__fill_1
X_189_ _120_ net13 _098_ VGND VGND VPWR VPWR _121_ sky130_fd_sc_hd__a21oi_1
X_258_ net6 _093_ _142_ net4 VGND VGND VPWR VPWR _036_ sky130_fd_sc_hd__a22o_1
XFILLER_0_10_65 VGND VGND VPWR VPWR sky130_fd_sc_hd__decap_8
XFILLER_0_21_53 VGND VGND VPWR VPWR sky130_fd_sc_hd__decap_3
XFILLER_0_16_53 VGND VGND VPWR VPWR sky130_fd_sc_hd__fill_1
XFILLER_0_12_133 VGND VGND VPWR VPWR sky130_fd_sc_hd__decap_6
Xoutput22 net22 VGND VGND VPWR VPWR result[0] sky130_fd_sc_hd__clkbuf_4
XTAP_114 VGND VPWR sky130_fd_sc_hd__tapvpwrvgnd_1
XTAP_103 VGND VPWR sky130_fd_sc_hd__tapvpwrvgnd_1
X_291_ _135_ _055_ _056_ _066_ VGND VGND VPWR VPWR net28 sky130_fd_sc_hd__a31o_1
XFILLER_0_4_141 VGND VGND VPWR VPWR sky130_fd_sc_hd__decap_3
XFILLER_0_7_95 VGND VGND VPWR VPWR sky130_fd_sc_hd__decap_6
XFILLER_0_13_76 VPWR VGND VPWR VGND sky130_ef_sc_hd__decap_12
XFILLER_0_1_144 VGND VGND VPWR VPWR sky130_fd_sc_hd__decap_3
X_274_ _000_ _043_ _046_ _050_ VGND VGND VPWR VPWR _051_ sky130_fd_sc_hd__o211a_1
XFILLER_0_24_53 VGND VGND VPWR VPWR sky130_fd_sc_hd__decap_3
XFILLER_0_24_20 VGND VGND VPWR VPWR sky130_fd_sc_hd__decap_8
XFILLER_0_4_41 VGND VGND VPWR VPWR sky130_fd_sc_hd__fill_1
XFILLER_0_4_85 VGND VGND VPWR VPWR sky130_fd_sc_hd__decap_4
XFILLER_0_19_86 VPWR VGND VPWR VGND sky130_ef_sc_hd__decap_12
X_257_ net5 net13 _085_ VGND VGND VPWR VPWR _035_ sky130_fd_sc_hd__o21a_1
X_188_ net5 VGND VGND VPWR VPWR _120_ sky130_fd_sc_hd__inv_2
XFILLER_0_10_22 VGND VGND VPWR VPWR sky130_fd_sc_hd__decap_6
XFILLER_0_21_21 VPWR VGND VPWR VGND sky130_ef_sc_hd__decap_12
X_309_ _130_ _000_ _081_ _101_ VGND VGND VPWR VPWR net21 sky130_fd_sc_hd__a2bb2o_1
Xoutput23 net23 VGND VGND VPWR VPWR result[1] sky130_fd_sc_hd__clkbuf_4
XTAP_115 VGND VPWR sky130_fd_sc_hd__tapvpwrvgnd_1
XTAP_104 VGND VPWR sky130_fd_sc_hd__tapvpwrvgnd_1
XFILLER_0_4_120 VGND VGND VPWR VPWR sky130_fd_sc_hd__fill_1
X_290_ net31 _057_ _060_ _065_ VGND VGND VPWR VPWR _066_ sky130_fd_sc_hd__a31o_1
X_273_ net6 _094_ _147_ _047_ _049_ VGND VGND VPWR VPWR _050_ sky130_fd_sc_hd__o221a_1
XFILLER_0_24_65 VGND VGND VPWR VPWR sky130_fd_sc_hd__fill_1
XFILLER_0_4_53 VGND VGND VPWR VPWR sky130_fd_sc_hd__decap_3
XFILLER_0_4_97 VPWR VGND VPWR VGND sky130_ef_sc_hd__decap_12
XFILLER_0_19_98 VGND VGND VPWR VPWR sky130_fd_sc_hd__decap_3
XFILLER_0_19_65 VGND VGND VPWR VPWR sky130_fd_sc_hd__fill_2
XFILLER_0_19_54 VGND VGND VPWR VPWR sky130_fd_sc_hd__fill_2
X_187_ net15 VGND VGND VPWR VPWR _119_ sky130_fd_sc_hd__inv_2
XFILLER_0_10_89 VGND VGND VPWR VPWR sky130_fd_sc_hd__fill_1
X_256_ net5 net13 _092_ VGND VGND VPWR VPWR _034_ sky130_fd_sc_hd__and3_1
XFILLER_0_19_107 VGND VGND VPWR VPWR sky130_fd_sc_hd__decap_4
XFILLER_0_24_121 VPWR VGND VPWR VGND sky130_ef_sc_hd__decap_12
XFILLER_0_24_110 VGND VGND VPWR VPWR sky130_fd_sc_hd__fill_2
XFILLER_0_21_33 VPWR VGND VPWR VGND sky130_ef_sc_hd__decap_12
X_239_ _108_ _017_ VGND VGND VPWR VPWR _018_ sky130_fd_sc_hd__xnor2_1
XFILLER_0_1_65 VGND VGND VPWR VPWR sky130_fd_sc_hd__decap_4
XFILLER_0_1_54 VGND VGND VPWR VPWR sky130_fd_sc_hd__fill_2
X_308_ _102_ _104_ _060_ _009_ VGND VGND VPWR VPWR _081_ sky130_fd_sc_hd__a31oi_1
XFILLER_0_21_113 VPWR VGND VPWR VGND sky130_ef_sc_hd__decap_12
XFILLER_0_12_102 VGND VGND VPWR VPWR sky130_fd_sc_hd__fill_2
Xoutput24 net24 VGND VGND VPWR VPWR result[2] sky130_fd_sc_hd__clkbuf_4
XTAP_116 VGND VPWR sky130_fd_sc_hd__tapvpwrvgnd_1
XTAP_105 VGND VPWR sky130_fd_sc_hd__tapvpwrvgnd_1
X_272_ _085_ _048_ VGND VGND VPWR VPWR _049_ sky130_fd_sc_hd__nand2_1
X_186_ _107_ _117_ VGND VGND VPWR VPWR _118_ sky130_fd_sc_hd__or2b_1
X_255_ _031_ _032_ VGND VGND VPWR VPWR _033_ sky130_fd_sc_hd__and2b_1
XFILLER_0_18_141 VGND VGND VPWR VPWR sky130_fd_sc_hd__decap_6
XFILLER_0_24_133 VGND VGND VPWR VPWR sky130_fd_sc_hd__decap_3
XFILLER_0_21_45 VGND VGND VPWR VPWR sky130_fd_sc_hd__decap_8
X_238_ _109_ _001_ _016_ VGND VGND VPWR VPWR _017_ sky130_fd_sc_hd__a21oi_1
X_169_ net8 net16 VGND VGND VPWR VPWR _101_ sky130_fd_sc_hd__or2_1
X_307_ net27 net28 net29 _080_ VGND VGND VPWR VPWR net30 sky130_fd_sc_hd__nor4_4
XFILLER_0_15_111 VGND VGND VPWR VPWR sky130_fd_sc_hd__fill_1
XFILLER_0_21_125 VPWR VGND VPWR VGND sky130_ef_sc_hd__decap_12
XFILLER_0_18_3 VPWR VGND VPWR VGND sky130_ef_sc_hd__decap_12
XFILLER_0_7_130 VPWR VGND VPWR VGND sky130_ef_sc_hd__decap_12
Xoutput25 net25 VGND VGND VPWR VPWR result[3] sky130_fd_sc_hd__clkbuf_4
XTAP_106 VGND VPWR sky130_fd_sc_hd__tapvpwrvgnd_1
XPHY_0 VGND VGND VPWR VPWR sky130_fd_sc_hd__decap_3
XFILLER_0_7_3 VPWR VGND VPWR VGND sky130_ef_sc_hd__decap_12
XFILLER_0_13_68 VGND VGND VPWR VPWR sky130_fd_sc_hd__fill_1
XFILLER_0_13_57 VGND VGND VPWR VPWR sky130_fd_sc_hd__fill_1
XFILLER_0_24_12 VGND VGND VPWR VPWR sky130_fd_sc_hd__decap_4
X_271_ net6 net14 VGND VGND VPWR VPWR _048_ sky130_fd_sc_hd__or2_1
XFILLER_0_4_66 VGND VGND VPWR VPWR sky130_fd_sc_hd__decap_6
X_185_ _108_ _109_ _113_ _116_ VGND VGND VPWR VPWR _117_ sky130_fd_sc_hd__a31o_1
X_254_ _128_ _117_ _100_ VGND VGND VPWR VPWR _032_ sky130_fd_sc_hd__a21o_1
XFILLER_0_21_57 VGND VGND VPWR VPWR sky130_fd_sc_hd__decap_8
X_237_ _114_ net11 VGND VGND VPWR VPWR _016_ sky130_fd_sc_hd__nor2_1
X_168_ net5 net13 VGND VGND VPWR VPWR _100_ sky130_fd_sc_hd__xor2_2
X_306_ net22 net25 net26 _079_ VGND VGND VPWR VPWR _080_ sky130_fd_sc_hd__or4_4
XFILLER_0_15_145 VGND VGND VPWR VPWR sky130_fd_sc_hd__fill_2
XFILLER_0_21_137 VGND VGND VPWR VPWR sky130_fd_sc_hd__decap_4
Xoutput26 net26 VGND VGND VPWR VPWR result[4] sky130_fd_sc_hd__clkbuf_4
XFILLER_0_7_142 VGND VGND VPWR VPWR sky130_fd_sc_hd__fill_1
XTAP_107 VGND VPWR sky130_fd_sc_hd__tapvpwrvgnd_1
XPHY_1 VGND VGND VPWR VPWR sky130_fd_sc_hd__decap_3
XFILLER_0_7_44 VPWR VGND VPWR VGND sky130_ef_sc_hd__decap_12
XFILLER_0_13_36 VPWR VGND VPWR VGND sky130_ef_sc_hd__decap_12
X_270_ _097_ _098_ VGND VGND VPWR VPWR _047_ sky130_fd_sc_hd__nor2_1
XFILLER_0_24_57 VGND VGND VPWR VPWR sky130_fd_sc_hd__decap_8
XFILLER_0_4_45 VGND VGND VPWR VPWR sky130_fd_sc_hd__decap_8
XFILLER_0_4_89 VGND VGND VPWR VPWR sky130_fd_sc_hd__fill_1
X_184_ _114_ net11 _108_ _115_ VGND VGND VPWR VPWR _116_ sky130_fd_sc_hd__a31o_1
XFILLER_0_19_79 VGND VGND VPWR VPWR sky130_fd_sc_hd__decap_3
XFILLER_0_19_57 VGND VGND VPWR VPWR sky130_fd_sc_hd__decap_8
XFILLER_0_19_46 VGND VGND VPWR VPWR sky130_fd_sc_hd__decap_8
XFILLER_0_10_15 VGND VGND VPWR VPWR sky130_fd_sc_hd__decap_3
X_253_ _128_ _100_ _117_ _000_ VGND VGND VPWR VPWR _031_ sky130_fd_sc_hd__a31o_1
XFILLER_0_18_121 VPWR VGND VPWR VGND sky130_ef_sc_hd__decap_12
XFILLER_0_24_113 VGND VGND VPWR VPWR sky130_fd_sc_hd__fill_2
XFILLER_0_24_102 VGND VGND VPWR VPWR sky130_fd_sc_hd__decap_8
X_305_ net23 net24 VGND VGND VPWR VPWR _079_ sky130_fd_sc_hd__or2_1
X_236_ net4 net12 _085_ _014_ VGND VGND VPWR VPWR _015_ sky130_fd_sc_hd__o22a_1
X_167_ _097_ _098_ VGND VGND VPWR VPWR _099_ sky130_fd_sc_hd__or2_4
XFILLER_0_15_113 VPWR VGND VPWR VGND sky130_ef_sc_hd__decap_12
XFILLER_0_15_102 VGND VGND VPWR VPWR sky130_fd_sc_hd__decap_6
XFILLER_0_1_57 VGND VGND VPWR VPWR sky130_fd_sc_hd__fill_1
X_219_ _135_ _136_ _145_ _149_ VGND VGND VPWR VPWR net23 sky130_fd_sc_hd__a211o_1
XFILLER_0_16_47 VGND VGND VPWR VPWR sky130_fd_sc_hd__decap_6
Xoutput27 net27 VGND VGND VPWR VPWR result[5] sky130_fd_sc_hd__clkbuf_4
XTAP_108 VGND VPWR sky130_fd_sc_hd__tapvpwrvgnd_1
XPHY_2 VGND VGND VPWR VPWR sky130_fd_sc_hd__decap_3
XFILLER_0_23_3 VPWR VGND VPWR VGND sky130_ef_sc_hd__decap_12
XFILLER_0_13_15 VPWR VGND VPWR VGND sky130_ef_sc_hd__decap_12
XFILLER_0_13_48 VGND VGND VPWR VPWR sky130_fd_sc_hd__decap_8
X_183_ net4 net12 VGND VGND VPWR VPWR _115_ sky130_fd_sc_hd__and2b_1
X_252_ _027_ _028_ _025_ VGND VGND VPWR VPWR _030_ sky130_fd_sc_hd__a21o_1
XFILLER_0_18_133 VGND VGND VPWR VPWR sky130_fd_sc_hd__decap_6
X_235_ _013_ _147_ VGND VGND VPWR VPWR _014_ sky130_fd_sc_hd__nor2_1
X_304_ _078_ VGND VGND VPWR VPWR net29 sky130_fd_sc_hd__buf_4
XFILLER_0_15_125 VPWR VGND VPWR VGND sky130_ef_sc_hd__decap_12
X_166_ net14 net6 VGND VGND VPWR VPWR _098_ sky130_fd_sc_hd__and2b_1
XFILLER_0_16_59 VGND VGND VPWR VPWR sky130_fd_sc_hd__decap_8
X_218_ net2 net10 _085_ _148_ VGND VGND VPWR VPWR _149_ sky130_fd_sc_hd__o22a_1
XFILLER_0_16_15 VPWR VGND VPWR VGND sky130_ef_sc_hd__decap_12
XFILLER_0_12_117 VGND VGND VPWR VPWR sky130_fd_sc_hd__decap_3
XFILLER_0_12_139 VGND VGND VPWR VPWR sky130_fd_sc_hd__fill_1
Xoutput28 net28 VGND VGND VPWR VPWR result[6] sky130_fd_sc_hd__clkbuf_4
XTAP_109 VGND VPWR sky130_fd_sc_hd__tapvpwrvgnd_1
XFILLER_0_16_3 VPWR VGND VPWR VGND sky130_ef_sc_hd__decap_12
XPHY_3 VGND VGND VPWR VPWR sky130_fd_sc_hd__decap_3
XFILLER_0_7_35 VGND VGND VPWR VPWR sky130_fd_sc_hd__decap_3
XFILLER_0_13_27 VGND VGND VPWR VPWR sky130_fd_sc_hd__fill_1
XFILLER_0_24_37 VGND VGND VPWR VPWR sky130_fd_sc_hd__fill_1
XFILLER_0_5_3 VPWR VGND VPWR VGND sky130_ef_sc_hd__decap_12
X_182_ net3 VGND VGND VPWR VPWR _114_ sky130_fd_sc_hd__inv_2
XFILLER_0_19_15 VPWR VGND VPWR VGND sky130_ef_sc_hd__decap_12
X_251_ _025_ _027_ _028_ VGND VGND VPWR VPWR _029_ sky130_fd_sc_hd__nand3_1
X_234_ net4 net12 VGND VGND VPWR VPWR _013_ sky130_fd_sc_hd__and2_1
X_165_ net14 net6 VGND VGND VPWR VPWR _097_ sky130_fd_sc_hd__and2b_1
X_303_ _070_ _073_ _076_ _077_ VGND VGND VPWR VPWR _078_ sky130_fd_sc_hd__or4_1
XFILLER_0_1_15 VPWR VGND VPWR VGND sky130_ef_sc_hd__decap_12
XFILLER_0_15_137 VGND VGND VPWR VPWR sky130_fd_sc_hd__decap_8
XFILLER_0_11_82 VGND VGND VPWR VPWR sky130_fd_sc_hd__decap_3
XFILLER_0_11_93 VGND VGND VPWR VPWR sky130_fd_sc_hd__decap_3
XFILLER_0_16_27 VGND VGND VPWR VPWR sky130_fd_sc_hd__fill_1
X_217_ _141_ _147_ VGND VGND VPWR VPWR _148_ sky130_fd_sc_hd__nor2_1
Xoutput29 net29 VGND VGND VPWR VPWR result[7] sky130_fd_sc_hd__clkbuf_4
XFILLER_0_2_91 VGND VGND VPWR VPWR sky130_fd_sc_hd__fill_1
XPHY_4 VGND VGND VPWR VPWR sky130_fd_sc_hd__decap_3
XFILLER_0_24_16 VGND VGND VPWR VPWR sky130_fd_sc_hd__fill_1
XFILLER_0_14_82 VGND VGND VPWR VPWR sky130_fd_sc_hd__fill_2
X_181_ _110_ _111_ _112_ VGND VGND VPWR VPWR _113_ sky130_fd_sc_hd__a21o_1
XFILLER_0_19_27 VGND VGND VPWR VPWR sky130_fd_sc_hd__decap_8
X_250_ _007_ _140_ _108_ _109_ VGND VGND VPWR VPWR _028_ sky130_fd_sc_hd__a211o_1
X_233_ _000_ _002_ _012_ VGND VGND VPWR VPWR net24 sky130_fd_sc_hd__o21ai_1
X_302_ _067_ _147_ VGND VGND VPWR VPWR _077_ sky130_fd_sc_hd__nor2_1
XFILLER_0_1_27 VPWR VGND VPWR VGND sky130_ef_sc_hd__decap_12
X_164_ _088_ _092_ _093_ net2 _095_ VGND VGND VPWR VPWR _096_ sky130_fd_sc_hd__a221o_1
XFILLER_0_21_108 VGND VGND VPWR VPWR sky130_fd_sc_hd__decap_4
XFILLER_0_20_141 VGND VGND VPWR VPWR sky130_fd_sc_hd__decap_6
XFILLER_0_20_130 VGND VGND VPWR VPWR sky130_fd_sc_hd__decap_8
X_216_ _146_ VGND VGND VPWR VPWR _147_ sky130_fd_sc_hd__buf_2
XFILLER_0_7_113 VPWR VGND VPWR VGND sky130_ef_sc_hd__decap_12
XPHY_5 VGND VGND VPWR VPWR sky130_fd_sc_hd__decap_3
XFILLER_0_4_127 VPWR VGND VPWR VGND sky130_ef_sc_hd__decap_12
XFILLER_0_7_15 VGND VGND VPWR VPWR sky130_fd_sc_hd__decap_3
XFILLER_0_4_27 VGND VGND VPWR VPWR sky130_fd_sc_hd__fill_1
X_180_ net2 net10 VGND VGND VPWR VPWR _112_ sky130_fd_sc_hd__and2b_1
X_232_ _004_ _006_ _011_ VGND VGND VPWR VPWR _012_ sky130_fd_sc_hd__and3b_1
X_301_ _101_ _085_ _142_ net7 _075_ VGND VGND VPWR VPWR _076_ sky130_fd_sc_hd__a221o_1
X_163_ net1 _094_ VGND VGND VPWR VPWR _095_ sky130_fd_sc_hd__nor2_1
XFILLER_0_1_39 VGND VGND VPWR VPWR sky130_fd_sc_hd__decap_3
XFILLER_0_16_29 VGND VGND VPWR VPWR sky130_fd_sc_hd__decap_8
X_215_ net17 net18 _087_ _086_ VGND VGND VPWR VPWR _146_ sky130_fd_sc_hd__or4b_1
XFILLER_0_22_83 VGND VGND VPWR VPWR sky130_fd_sc_hd__fill_1
XFILLER_0_2_71 VGND VGND VPWR VPWR sky130_fd_sc_hd__fill_2
XFILLER_0_7_125 VGND VGND VPWR VPWR sky130_fd_sc_hd__fill_2
XFILLER_0_11_120 VPWR VGND VPWR VGND sky130_ef_sc_hd__decap_12
XPHY_6 VGND VGND VPWR VPWR sky130_fd_sc_hd__decap_3
XFILLER_0_4_139 VGND VGND VPWR VPWR sky130_fd_sc_hd__fill_1
XFILLER_0_1_109 VGND VGND VPWR VPWR sky130_fd_sc_hd__decap_3
XFILLER_0_14_3 VPWR VGND VPWR VGND sky130_ef_sc_hd__decap_12
XFILLER_0_24_29 VGND VGND VPWR VPWR sky130_fd_sc_hd__decap_8
XFILLER_0_14_73 VGND VGND VPWR VPWR sky130_fd_sc_hd__fill_2
XFILLER_0_14_40 VGND VGND VPWR VPWR sky130_fd_sc_hd__decap_8
XFILLER_0_3_3 VPWR VGND VPWR VGND sky130_ef_sc_hd__decap_12
X_231_ _008_ _009_ _010_ VGND VGND VPWR VPWR _011_ sky130_fd_sc_hd__or3b_1
X_300_ net8 net16 _092_ _074_ VGND VGND VPWR VPWR _075_ sky130_fd_sc_hd__a31o_1
X_162_ _083_ _087_ _086_ _082_ VGND VGND VPWR VPWR _094_ sky130_fd_sc_hd__or4bb_4
XFILLER_0_11_74 VGND VGND VPWR VPWR sky130_fd_sc_hd__decap_8
Xinput1 a[0] VGND VGND VPWR VPWR net1 sky130_fd_sc_hd__buf_4
XTAP_90 VGND VPWR sky130_fd_sc_hd__tapvpwrvgnd_1
X_214_ _137_ _139_ _140_ _144_ VGND VGND VPWR VPWR _145_ sky130_fd_sc_hd__a31o_1
XFILLER_0_7_104 VGND VGND VPWR VPWR sky130_fd_sc_hd__decap_8
XFILLER_0_11_132 VGND VGND VPWR VPWR sky130_fd_sc_hd__decap_6
XPHY_7 VGND VGND VPWR VPWR sky130_fd_sc_hd__decap_3
XFILLER_0_4_29 VPWR VGND VPWR VGND sky130_ef_sc_hd__decap_12
XFILLER_0_14_96 VGND VGND VPWR VPWR sky130_fd_sc_hd__fill_2
XFILLER_0_14_85 VGND VGND VPWR VPWR sky130_fd_sc_hd__decap_3
XFILLER_0_14_63 VGND VGND VPWR VPWR sky130_fd_sc_hd__fill_1
X_230_ _007_ _140_ _109_ VGND VGND VPWR VPWR _010_ sky130_fd_sc_hd__a21o_1
X_161_ _087_ _086_ net18 net17 VGND VGND VPWR VPWR _093_ sky130_fd_sc_hd__and4b_2
XTAP_91 VGND VPWR sky130_fd_sc_hd__tapvpwrvgnd_1
XFILLER_0_14_141 VGND VGND VPWR VPWR sky130_fd_sc_hd__decap_6
Xinput2 a[1] VGND VGND VPWR VPWR net2 sky130_fd_sc_hd__buf_2
XTAP_80 VGND VPWR sky130_fd_sc_hd__tapvpwrvgnd_1
X_213_ _141_ _092_ _142_ net1 _143_ VGND VGND VPWR VPWR _144_ sky130_fd_sc_hd__a221o_1
XFILLER_0_22_85 VPWR VGND VPWR VGND sky130_ef_sc_hd__decap_12
XFILLER_0_22_41 VPWR VGND VPWR VGND sky130_ef_sc_hd__decap_12
XFILLER_0_11_111 VGND VGND VPWR VPWR sky130_fd_sc_hd__fill_1
Xmax_cap31 _137_ VGND VGND VPWR VPWR net31 sky130_fd_sc_hd__buf_1
XPHY_8 VGND VGND VPWR VPWR sky130_fd_sc_hd__decap_3
XFILLER_0_0_111 VGND VGND VPWR VPWR sky130_fd_sc_hd__fill_1
XFILLER_0_4_19 VGND VGND VPWR VPWR sky130_fd_sc_hd__decap_8
XFILLER_0_18_139 VGND VGND VPWR VPWR sky130_fd_sc_hd__fill_1
XFILLER_0_5_73 VGND VGND VPWR VPWR sky130_fd_sc_hd__fill_1
X_160_ _091_ VGND VGND VPWR VPWR _092_ sky130_fd_sc_hd__buf_2
Xinput3 a[2] VGND VGND VPWR VPWR net3 sky130_fd_sc_hd__buf_4
XTAP_92 VGND VPWR sky130_fd_sc_hd__tapvpwrvgnd_1
X_289_ _105_ _062_ _063_ _064_ VGND VGND VPWR VPWR _065_ sky130_fd_sc_hd__a211o_1
XTAP_70 VGND VPWR sky130_fd_sc_hd__tapvpwrvgnd_1
XTAP_81 VGND VPWR sky130_fd_sc_hd__tapvpwrvgnd_1
X_212_ net2 _094_ _093_ net3 VGND VGND VPWR VPWR _143_ sky130_fd_sc_hd__a2bb2o_1
XFILLER_0_22_97 VPWR VGND VPWR VGND sky130_ef_sc_hd__decap_12
XFILLER_0_22_53 VPWR VGND VPWR VGND sky130_ef_sc_hd__decap_12
XFILLER_0_2_85 VGND VGND VPWR VPWR sky130_fd_sc_hd__decap_6
XFILLER_0_2_41 VGND VGND VPWR VPWR sky130_fd_sc_hd__decap_8
XFILLER_0_17_64 VGND VGND VPWR VPWR sky130_fd_sc_hd__decap_6
XFILLER_0_4_109 VGND VGND VPWR VPWR sky130_fd_sc_hd__fill_1
XPHY_9 VGND VGND VPWR VPWR sky130_fd_sc_hd__decap_3
XFILLER_0_3_131 VPWR VGND VPWR VGND sky130_ef_sc_hd__decap_12
XFILLER_0_5_52 VGND VGND VPWR VPWR sky130_fd_sc_hd__decap_4
XFILLER_0_1_3 VPWR VGND VPWR VGND sky130_ef_sc_hd__decap_12
XTAP_93 VGND VPWR sky130_fd_sc_hd__tapvpwrvgnd_1
XTAP_60 VGND VPWR sky130_fd_sc_hd__tapvpwrvgnd_1
Xinput4 a[3] VGND VGND VPWR VPWR net4 sky130_fd_sc_hd__clkbuf_4
X_288_ net7 _094_ _093_ net8 VGND VGND VPWR VPWR _064_ sky130_fd_sc_hd__a2bb2o_1
XTAP_71 VGND VPWR sky130_fd_sc_hd__tapvpwrvgnd_1
XTAP_82 VGND VPWR sky130_fd_sc_hd__tapvpwrvgnd_1
X_211_ _082_ _087_ _086_ _083_ VGND VGND VPWR VPWR _142_ sky130_fd_sc_hd__and4bb_4
XFILLER_0_22_65 VPWR VGND VPWR VGND sky130_ef_sc_hd__decap_12
XFILLER_0_2_97 VGND VGND VPWR VPWR sky130_fd_sc_hd__fill_2
XFILLER_0_17_21 VGND VGND VPWR VPWR sky130_fd_sc_hd__decap_4
XFILLER_0_3_143 VGND VGND VPWR VPWR sky130_fd_sc_hd__decap_4
XFILLER_0_0_113 VPWR VGND VPWR VGND sky130_ef_sc_hd__decap_12
XFILLER_0_0_102 VGND VGND VPWR VPWR sky130_fd_sc_hd__decap_6
XFILLER_0_23_111 VGND VGND VPWR VPWR sky130_fd_sc_hd__fill_1
X_287_ net7 net15 _092_ _142_ net6 VGND VGND VPWR VPWR _063_ sky130_fd_sc_hd__a32o_1
Xinput5 a[4] VGND VGND VPWR VPWR net5 sky130_fd_sc_hd__buf_4
XFILLER_0_11_23 VGND VGND VPWR VPWR sky130_fd_sc_hd__fill_1
XTAP_94 VGND VPWR sky130_fd_sc_hd__tapvpwrvgnd_1
XTAP_50 VGND VPWR sky130_fd_sc_hd__tapvpwrvgnd_1
XTAP_61 VGND VPWR sky130_fd_sc_hd__tapvpwrvgnd_1
XTAP_72 VGND VPWR sky130_fd_sc_hd__tapvpwrvgnd_1
XTAP_83 VGND VPWR sky130_fd_sc_hd__tapvpwrvgnd_1
X_210_ net2 net10 VGND VGND VPWR VPWR _141_ sky130_fd_sc_hd__and2_1
XFILLER_0_22_77 VGND VGND VPWR VPWR sky130_fd_sc_hd__decap_6
XFILLER_0_6_141 VGND VGND VPWR VPWR sky130_fd_sc_hd__decap_6
XFILLER_0_11_103 VGND VGND VPWR VPWR sky130_fd_sc_hd__decap_8
XFILLER_0_3_100 VPWR VGND VPWR VGND sky130_ef_sc_hd__decap_12
XFILLER_0_21_9 VPWR VGND VPWR VGND sky130_ef_sc_hd__decap_12
XFILLER_0_8_64 VPWR VGND VPWR VGND sky130_ef_sc_hd__decap_12
XFILLER_0_18_109 VPWR VGND VPWR VGND sky130_ef_sc_hd__decap_12
XFILLER_0_5_65 VGND VGND VPWR VPWR sky130_fd_sc_hd__decap_8
XFILLER_0_5_87 VGND VGND VPWR VPWR sky130_fd_sc_hd__decap_3
X_286_ _085_ _061_ VGND VGND VPWR VPWR _062_ sky130_fd_sc_hd__or2_1
XFILLER_0_11_35 VGND VGND VPWR VPWR sky130_fd_sc_hd__decap_4
XTAP_95 VGND VPWR sky130_fd_sc_hd__tapvpwrvgnd_1
XTAP_51 VGND VPWR sky130_fd_sc_hd__tapvpwrvgnd_1
XTAP_62 VGND VPWR sky130_fd_sc_hd__tapvpwrvgnd_1
XTAP_73 VGND VPWR sky130_fd_sc_hd__tapvpwrvgnd_1
Xinput6 a[5] VGND VGND VPWR VPWR net6 sky130_fd_sc_hd__buf_6
XTAP_84 VGND VPWR sky130_fd_sc_hd__tapvpwrvgnd_1
X_269_ net5 _142_ _045_ VGND VGND VPWR VPWR _046_ sky130_fd_sc_hd__a21oi_1
XFILLER_0_17_45 VGND VGND VPWR VPWR sky130_fd_sc_hd__fill_1
Xinput20 opcode[3] VGND VGND VPWR VPWR net20 sky130_fd_sc_hd__buf_1
XFILLER_0_8_76 VGND VGND VPWR VPWR sky130_fd_sc_hd__decap_8
XFILLER_0_8_98 VGND VGND VPWR VPWR sky130_fd_sc_hd__fill_2
XFILLER_0_10_3 VPWR VGND VPWR VGND sky130_ef_sc_hd__decap_12
XFILLER_0_23_113 VPWR VGND VPWR VGND sky130_ef_sc_hd__decap_12
X_285_ _147_ _104_ VGND VGND VPWR VPWR _061_ sky130_fd_sc_hd__and2b_1
XTAP_96 VGND VPWR sky130_fd_sc_hd__tapvpwrvgnd_1
XFILLER_0_14_113 VPWR VGND VPWR VGND sky130_ef_sc_hd__decap_12
XTAP_52 VGND VPWR sky130_fd_sc_hd__tapvpwrvgnd_1
Xinput7 a[6] VGND VGND VPWR VPWR net7 sky130_fd_sc_hd__buf_2
XTAP_63 VGND VPWR sky130_fd_sc_hd__tapvpwrvgnd_1
XTAP_74 VGND VPWR sky130_fd_sc_hd__tapvpwrvgnd_1
XTAP_85 VGND VPWR sky130_fd_sc_hd__tapvpwrvgnd_1
XFILLER_0_20_138 VGND VGND VPWR VPWR sky130_fd_sc_hd__fill_2
X_268_ net7 _093_ _044_ _092_ VGND VGND VPWR VPWR _045_ sky130_fd_sc_hd__a22o_1